AquaCrop 7.1 (August 2023) - Output created on (date) : 12/07/2023   at (time) : 15:35:16
Crop development and production

** Run number:  1
   Day Month  Year   DAP Stage    GD       Z     StExp  StSto  StSen StSalt StWeed   CC      CCw     StTr  Kc(Tr)     Trx      Tr       TrW  Tr/Trx   WP    Biomass     HI    Y(dry)  Y(fresh)  Brelative   WPet      Bin     Bout
                                °C-day     m       %      %      %      %      %      %       %       %       -        mm       mm       mm    %     g/m2    ton/ha      %    ton/ha   ton/ha       %      kg/m3   ton/ha   ton/ha
    22     3     1     1    1    14.5    0.30     -9     -9     -9      0     -9     0.0     0.0      0    -9.00      0.0      0.0      0.0   100    17.0     0.000    -9.9    0.000    0.000       -9      0.00    0.000    0.000
    23     3     1     2    1    14.5    0.30     -9     -9     -9      0     -9     0.0     0.0      0    -9.00      0.0      0.0      0.0   100    17.0     0.000    -9.9    0.000    0.000       -9      0.00    0.000    0.000
    24     3     1     3    1    14.5    0.30     -9     -9     -9      0     -9     0.0     0.0      0    -9.00      0.0      0.0      0.0   100    17.0     0.000    -9.9    0.000    0.000       -9      0.00    0.000    0.000
    25     3     1     4    1    14.5    0.30     -9     -9     -9      0     -9     0.0     0.0      0    -9.00      0.0      0.0      0.0   100    17.0     0.000    -9.9    0.000    0.000       -9      0.00    0.000    0.000
    26     3     1     5    1    14.5    0.30     -9     -9     -9      0     -9     0.0     0.0      0    -9.00      0.0      0.0      0.0   100    17.0     0.000    -9.9    0.000    0.000       -9      0.00    0.000    0.000
    27     3     1     6    2    14.5    0.30     -9      0      0      0      0     1.4     1.4      0     0.03      0.1      0.1      0.1   100    17.0     0.004    -9.9    0.000    0.000      100      0.00    0.000    0.000
    28     3     1     7    2    14.5    0.32     -9      0      0      0      0     1.6     1.6      0     0.03      0.2      0.2      0.2   100    17.0     0.010    -9.9    0.000    0.000      100      0.00    0.000    0.000
    29     3     1     8    2    14.5    0.33      0      0      0      0      0     1.9     1.9      0     0.04      0.2      0.2      0.2   100    17.0     0.016    -9.9    0.000    0.000      100      0.00    0.000    0.000
    30     3     1     9    2    14.5    0.35      0      0      0      0      0     2.2     2.2      0     0.04      0.2      0.2      0.2   100    17.0     0.023    -9.9    0.000    0.000      100      0.00    0.000    0.000
    31     3     1    10    2    14.5    0.36      0      0      0      0      0     2.5     2.5      0     0.05      0.2      0.2      0.2   100    17.0     0.031    -9.9    0.000    0.000      100      0.00    0.000    0.000
     1     4     1    11    2    14.5    0.37      0      0      0      0      0     3.0     3.0      0     0.06      0.3      0.3      0.3   100    17.0     0.040    -9.9    0.000    0.000      100      0.00    0.000    0.000
     2     4     1    12    2    14.5    0.38      0      0      0      0      0     3.4     3.4      0     0.06      0.3      0.3      0.3   100    17.0     0.051    -9.9    0.000    0.000      100      0.00    0.000    0.000
     3     4     1    13    2    14.5    0.39      0      0      0      0      0     4.0     4.0      0     0.07      0.4      0.4      0.4   100    17.0     0.063    -9.9    0.000    0.000      100      0.00    0.000    0.000
     4     4     1    14    2    14.5    0.40      0      0      0      0      0     4.6     4.6      0     0.09      0.4      0.4      0.4   100    17.0     0.078    -9.9    0.000    0.000      100      0.00    0.000    0.000
     5     4     1    15    2    14.5    0.42      1      0      0      0      0     5.4     5.4      0     0.10      0.5      0.5      0.5   100    17.0     0.095    -9.9    0.000    0.000      100      0.00    0.000    0.000
     6     4     1    16    2    14.5    0.43      1      0      0      0      0     6.2     6.2      0     0.11      0.6      0.6      0.6   100    17.0     0.114    -9.9    0.000    0.000      100      0.00    0.000    0.000
     7     4     1    17    2    14.5    0.44      1      0      0      0      0     7.2     7.2      0     0.13      0.7      0.7      0.7   100    17.0     0.136    -9.9    0.000    0.000      100      0.00    0.000    0.000
     8     4     1    18    2    14.5    0.45      1      0      0      0      0     8.4     8.4      0     0.15      0.8      0.8      0.8   100    17.0     0.162    -9.9    0.000    0.000      100      0.00    0.000    0.000
     9     4     1    19    2    14.5    0.46      2      0      0      0      0     9.7     9.7      0     0.17      0.9      0.9      0.9   100    17.0     0.192    -9.9    0.000    0.000      100      0.00    0.000    0.000
    10     4     1    20    2    14.5    0.47      2      0      0      0      0    11.3    11.3      0     0.20      1.0      1.0      1.0   100    17.0     0.226    -9.9    0.000    0.000      100      0.00    0.000    0.000
    11     4     1    21    2    14.5    0.47      3      0      0      0      0    13.0    13.0      0     0.23      1.1      1.1      1.1   100    17.0     0.264    -9.9    0.000    0.000       99      0.00    0.000    0.000
    12     4     1    22    2    14.5    0.48      3      0      0      0      0    15.1    15.1      0     0.26      1.3      1.3      1.3   100    17.0     0.309    -9.9    0.000    0.000       99      0.00    0.000    0.000
    13     4     1    23    2    14.5    0.49      4      0      0      0      0    17.4    17.4      0     0.30      1.5      1.5      1.5   100    17.0     0.359    -9.9    0.000    0.000       99      0.00    0.000    0.000
    14     4     1    24    2    14.5    0.50      5      0      0      0      0    20.1    20.1      0     0.34      1.7      1.7      1.7   100    17.0     0.417    -9.9    0.000    0.000       99      0.00    0.000    0.000
    15     4     1    25    2    14.5    0.51      6      0      0      0      0    23.1    23.1      0     0.38      1.9      1.9      1.9   100    17.0     0.482    -9.9    0.000    0.000       98      0.00    0.000    0.000
    16     4     1    26    2    14.5    0.52      8      0      0      0      0    26.5    26.5      0     0.43      2.2      2.2      2.2   100    17.0     0.555    -9.9    0.000    0.000       98      0.00    0.000    0.000
    17     4     1    27    2    14.5    0.53      9      0      0      0      0    30.4    30.4      0     0.48      2.4      2.4      2.4   100    17.0     0.637    -9.9    0.000    0.000       97      0.00    0.000    0.000
    18     4     1    28    2    14.5    0.54     12      0      0      0      0    34.7    34.7      0     0.54      2.7      2.7      2.7   100    17.0     0.729    -9.9    0.000    0.000       97      0.00    0.000    0.000
    19     4     1    29    2    14.5    0.54     15      0      0      0      0    39.4    39.4      0     0.60      3.0      3.0      3.0   100    17.0     0.830    -9.9    0.000    0.000       96      0.00    0.000    0.000
    20     4     1    30    2    14.5    0.55     19      0      0      0      0    44.0    44.0      0     0.65      3.2      3.2      3.2   100    17.0     0.940    -9.9    0.000    0.000       96      0.00    0.000    0.000
    21     4     1    31    2    14.5    0.56     24      0      0      0      0    47.9    47.9      0     0.69      3.4      3.4      3.4   100    17.0     1.057    -9.9    0.000    0.000       96      0.00    0.000    0.000
    22     4     1    32    2    14.5    0.57     31      0      0      0      0    51.0    51.0      0     0.72      3.6      3.6      3.6   100    17.0     1.180    -9.9    0.000    0.000       95      0.00    0.000    0.000
    23     4     1    33    2    14.5    0.58     40      0      0      0      0    53.4    53.4      0     0.75      3.7      3.7      3.7   100    17.0     1.307    -9.9    0.000    0.000       95      0.00    0.000    0.000
    24     4     1    34    2    14.5    0.58     51      5      0      0      0    55.2    55.2      0     0.77      3.8      3.6      3.6    95    17.0     1.430    -9.9    0.000    0.000       94      0.00    0.000    0.000
    25     4     1    35    2    14.5    0.59     64     10      0      0      0    56.4    56.4      0     0.78      3.9      3.5      3.5    90    17.0     1.549    -9.9    0.000    0.000       93      0.00    0.000    0.000
    26     4     1    36    2    14.5    0.60     78     15      0      0      0    57.0    57.0      0     0.78      3.9      3.3      3.3    85    17.0     1.662    -9.9    0.000    0.000       92      0.00    0.000    0.000
    27     4     1    37    2    14.5    0.61     94     19      0      0      0    57.0    57.0      0     0.78      3.9      3.2      3.2    81    17.0     1.771    -9.9    0.000    0.000       90      0.00    0.000    0.000
    28     4     1    38    2    14.5    0.62    100     22      0      0      0    57.0    57.0      0     0.78      3.9      3.0      3.0    78    17.0     1.874    -9.9    0.000    0.000       88      0.00    0.000    0.000
    29     4     1    39    2    14.5    0.62    100     26      0      0      0    57.0    57.0      0     0.78      3.9      2.9      2.9    74    17.0     1.973    -9.9    0.000    0.000       87      0.00    0.000    0.000
    30     4     1    40    2    14.5    0.63    100     29      0      0      0    57.0    57.0      0     0.78      3.9      2.8      2.8    71    17.0     2.067    -9.9    0.000    0.000       85      0.00    0.000    0.000
     1     5     1    41    2    14.5    0.64    100     32      0      0      0    57.0    57.0      0     0.78      3.9      2.7      2.7    68    17.0     2.158    -9.9    0.000    0.000       83      0.00    0.000    0.000
     2     5     1    42    2    14.5    0.64    100     35      0      0      0    57.0    57.0      0     0.78      3.9      2.6      2.6    65    17.0     2.245    -9.9    0.000    0.000       82      0.00    0.000    0.000
     3     5     1    43    2    14.5    0.65    100     37      0      0      0    57.0    57.0      0     0.78      3.9      2.5      2.5    63    17.0     2.329    -9.9    0.000    0.000       80      0.00    0.000    0.000
     4     5     1    44    2    14.5    0.66    100     39      0      0      0    57.0    57.0      0     0.78      3.9      2.4      2.4    61    17.0     2.409    -9.9    0.000    0.000       78      0.00    0.000    0.000
     5     5     1    45    2    14.5    0.67    100     41      0      0      0    57.0    57.0      0     0.78      3.9      2.3      2.3    59    17.0     2.487    -9.9    0.000    0.000       77      0.00    0.000    0.000
     6     5     1    46    2    14.5    0.67    100     43      0      0      0    57.0    57.0      0     0.78      3.9      2.2      2.2    57    17.0     2.562    -9.9    0.000    0.000       75      0.00    0.000    0.000
     7     5     1    47    2    14.5    0.68    100     45      0      0      0    57.0    57.0      0     0.78      3.9      2.1      2.1    55    17.0     2.635    -9.9    0.000    0.000       74      0.00    0.000    0.000
     8     5     1    48    2    14.5    0.69    100     47      0      0      0    57.0    57.0      0     0.78      3.9      2.1      2.1    53    17.0     2.706    -9.9    0.000    0.000       73      0.00    0.000    0.000
     9     5     1    49    2    14.5    0.69    100     49      0      0      0    57.0    57.0      0     0.78      3.9      2.0      2.0    51    17.0     2.774    -9.9    0.000    0.000       71      0.00    0.000    0.000
    10     5     1    50    2    14.5    0.70    100     50      0      0      0    57.0    57.0      0     0.78      3.9      1.9      1.9    50    17.0     2.840    -9.9    0.000    0.000       70      0.00    0.000    0.000
    11     5     1    51    2    14.5    0.71    100     52      0      0      0    57.0    57.0      0     0.78      3.9      1.9      1.9    48    17.0     2.905    -9.9    0.000    0.000       69      0.00    0.000    0.000
    12     5     1    52    2    14.5    0.71    100     53      0      0      0    57.0    57.0      0     0.78      3.9      1.8      1.8    47    17.0     2.967    -9.9    0.000    0.000       68      0.00    0.000    0.000
    13     5     1    53    2    14.5    0.72    100     54      0      0      0    57.0    57.0      0     0.78      3.9      1.8      1.8    46    17.0     3.028    -9.9    0.000    0.000       67      0.00    0.000    0.000
    14     5     1    54    2    14.5    0.72    100     55      0      0      0    57.0    57.0      0     0.78      3.9      1.7      1.7    45    17.0     3.088    -9.9    0.000    0.000       66      0.00    0.000    0.000
    15     5     1    55    2    14.5    0.73    100     56      0      0      0    57.0    57.0      0     0.78      3.9      1.7      1.7    44    17.0     3.146    -9.9    0.000    0.000       65      0.00    0.000    0.000
    16     5     1    56    2    14.5    0.74    100     57      0      0      0    57.0    57.0      0     0.78      3.9      1.7      1.7    43    17.0     3.202    -9.9    0.000    0.000       64      0.00    0.000    0.000
    17     5     1    57    2    14.5    0.74    100     58      0      0      0    57.0    57.0      0     0.78      3.9      1.6      1.6    42    17.0     3.257    -9.9    0.000    0.000       63      0.00    0.000    0.000
    18     5     1    58    2    14.5    0.75    100     59      0      0      0    57.0    57.0      0     0.78      3.9      1.6      1.6    41    17.0     3.311    -9.9    0.000    0.000       62      0.00    0.000    0.000
    19     5     1    59    2    14.5    0.75    100     60      0      0      0    57.0    57.0      0     0.78      3.9      1.6      1.6    40    17.0     3.364    -9.9    0.000    0.000       61      0.00    0.000    0.000
    20     5     1    60    2    14.5    0.76    100     61      0      0      0    57.0    57.0      0     0.78      3.9      1.5      1.5    39    17.0     3.416    -9.9    0.000    0.000       60      0.00    0.000    0.000
    21     5     1    61    2    14.5    0.77    100     62      0      0      0    57.0    57.0      0     0.78      3.9      1.5      1.5    38    17.0     3.466    -9.9    0.000    0.000       59      0.00    0.000    0.000
    22     5     1    62    2    14.5    0.77    100     63      0      0      0    57.0    57.0      0     0.78      3.9      1.5      1.5    37    17.0     3.516    -9.9    0.000    0.000       58      0.00    0.000    0.000
    23     5     1    63    2    14.5    0.78    100     63      0      0      0    57.0    57.0      0     0.78      3.9      1.4      1.4    37    17.0     3.564    -9.9    0.000    0.000       58      0.00    0.000    0.000
    24     5     1    64    2    14.5    0.78    100     64      0      0      0    57.0    57.0      0     0.78      3.9      1.4      1.4    36    17.0     3.612    -9.9    0.000    0.000       57      0.00    0.000    0.000
    25     5     1    65    2    14.5    0.79    100     65      0      0      0    57.0    57.0      0     0.78      3.9      1.4      1.4    35    17.0     3.659    -9.9    0.000    0.000       56      0.00    0.000    0.000
    26     5     1    66    2    14.5    0.79    100     65      0      0      0    57.0    57.0      0     0.78      3.9      1.3      1.3    35    17.0     3.705    -9.9    0.000    0.000       55      0.00    0.000    0.000
    27     5     1    67    2    14.5    0.80    100     66      0      0      0    57.0    57.0      0     0.78      3.9      1.3      1.3    34    17.0     3.750    -9.9    0.000    0.000       55      0.00    0.000    0.000
    28     5     1    68    2    14.5    0.80    100     66      0      0      0    57.0    57.0      0     0.78      3.9      1.3      1.3    34    17.0     3.794    -9.9    0.000    0.000       54      0.00    0.000    0.000
    29     5     1    69    2    14.5    0.81    100     67      0      0      0    57.0    57.0      0     0.77      3.9      1.3      1.3    33    17.0     3.837    -9.9    0.000    0.000       53      0.00    0.000    0.000
    30     5     1    70    2    14.5    0.82    100     67      0      0      0    57.0    57.0      0     0.77      3.9      1.3      1.3    33    17.0     3.880    -9.9    0.000    0.000       53      0.00    0.000    0.000
    31     5     1    71    3    14.5    0.82    100     68      0      0      0    57.0    57.0      0     0.77      3.9      1.2      1.2    32    17.0     3.922    -9.9    0.000    0.000       52      0.00    0.000    0.000
     1     6     1    72    3    14.5    0.83    100     68      0      0      0    57.0    57.0      0     0.77      3.9      1.2      1.2    32    17.0     3.964    -9.9    0.000    0.000       52      0.00    0.000    0.000
     2     6     1    73    3    14.5    0.83    100     69      0      0      0    57.0    57.0      0     0.77      3.9      1.2      1.2    31    17.0     4.005    -9.9    0.000    0.000       51      0.00    0.000    0.000
     3     6     1    74    3    14.5    0.84    100     69      0      0      0    57.0    57.0      0     0.77      3.9      1.2      1.2    31    17.0     4.045     1.4    0.059    0.234       51      0.04    0.000    0.000
     4     6     1    75    3    14.5    0.84    100     70      0      0      0    57.0    57.0      0     0.77      3.9      1.2      1.2    30    17.0     4.085     1.7    0.069    0.275       50      0.05    0.000    0.000
     5     6     1    76    3    14.5    0.85     -9     70      0      0      0    57.0    57.0      0     0.77      3.9      1.2      1.2    30    17.0     4.124     2.0    0.080    0.322       50      0.06    0.000    0.000
     6     6     1    77    3    14.5    0.85     -9     71      0      0      0    57.0    57.0      0     0.77      3.8      1.1      1.1    29    17.0     4.162     2.3    0.094    0.377       49      0.06    0.000    0.000
     7     6     1    78    3    14.5    0.86     -9     71      1      0      0    57.0    57.0      0     0.77      3.8      1.1      1.1    29    17.0     4.200     2.6    0.110    0.440       49      0.07    0.000    0.000
     8     6     1    79    3    14.5    0.86     -9     71      1      0      0    57.0    57.0      0     0.77      3.8      1.1      1.1    29    17.0     4.238     3.0    0.128    0.514       48      0.09    0.000    0.000
     9     6     1    80    3    14.5    0.87     -9     72      1      0      0    57.0    57.0      0     0.77      3.8      1.1      1.1    28    17.0     4.275     3.5    0.150    0.599       48      0.10    0.000    0.000
    10     6     1    81    4    14.5    0.87     -9     72      1      0      0    56.9    56.9      0     0.76      3.8      1.1      1.1    28    17.0     4.311     4.0    0.174    0.696       47      0.12    0.000    0.000
    11     6     1    82    4    14.5    0.87     -9     72      1      0      0    56.9    56.9      0     0.76      3.8      1.1      1.1    28    17.0     4.347     4.6    0.202    0.808       47      0.13    0.000    0.000
    12     6     1    83    4    14.5    0.88     -9     73      2      0      0    56.8    56.8      0     0.76      3.8      1.0      1.0    27    17.0     4.383     5.3    0.234    0.935       46      0.15    0.000    0.000
    13     6     1    84    4    14.5    0.88     -9     73      2      0      0    56.7    56.7      0     0.76      3.8      1.0      1.0    27    17.0     4.418     6.1    0.270    1.080       46      0.18    0.000    0.000
    14     6     1    85    4    14.5    0.89     -9     73      2      0      0    56.7    56.7      0     0.76      3.8      1.0      1.0    27    17.0     4.452     7.0    0.311    1.243       46      0.20    0.000    0.000
    15     6     1    86    4    14.5    0.89     -9     73      2      0      0    56.6    56.6      0     0.75      3.8      1.0      1.0    27    17.0     4.486     7.9    0.357    1.426       45      0.23    0.000    0.000
    16     6     1    87    4    14.5    0.90     -9     74      2      0      0    56.5    56.5      0     0.75      3.8      1.0      1.0    26    17.0     4.520     9.0    0.407    1.630       45      0.26    0.000    0.000
    17     6     1    88    4    14.5    0.90     -9     74      3      0      0    56.4    56.4      0     0.75      3.7      1.0      1.0    26    17.0     4.553    10.1    0.459    1.835       44      0.29    0.000    0.000
    18     6     1    89    4    14.5    0.91     -9     74      3      0      0    56.3    56.3      0     0.75      3.7      1.0      1.0    26    17.0     4.586    11.1    0.511    2.044       44      0.32    0.000    0.000
    19     6     1    90    4    14.5    0.91     -9     74      3      0      0    56.2    56.2      0     0.74      3.7      1.0      1.0    26    17.0     4.618    12.2    0.564    2.254       44      0.35    0.000    0.000
    20     6     1    91    4    14.5    0.92     -9     75      3      0      0    56.1    56.1      0     0.74      3.7      0.9      0.9    25    17.0     4.650    13.3    0.617    2.467       43      0.38    0.000    0.000
    21     6     1    92    4    14.5    0.92     -9     75      3      0      0    55.9    55.9      0     0.74      3.7      0.9      0.9    25    17.0     4.682    14.3    0.671    2.683       43      0.41    0.000    0.000
    22     6     1    93    4    14.5    0.92     -9     75      4      0      0    55.8    55.8      0     0.73      3.7      0.9      0.9    25    17.0     4.713    15.4    0.725    2.900       43      0.45    0.000    0.000
    23     6     1    94    4    14.5    0.93     -9     75      4      0      0    55.6    55.6      0     0.73      3.6      0.9      0.9    25    17.0     4.743    16.4    0.780    3.120       42      0.48    0.000    0.000
    24     6     1    95    4    14.5    0.93     -9     75      4      0      0    55.4    55.4      0     0.72      3.6      0.9      0.9    25    17.0     4.774    17.5    0.835    3.341       42      0.51    0.000    0.000
    25     6     1    96    4    14.5    0.94     -9     76      4      0      0    55.3    55.3      0     0.72      3.6      0.9      0.9    24    17.0     4.803    18.6    0.891    3.565       42      0.54    0.000    0.000
    26     6     1    97    4    14.5    0.94     -9     76      4      0      0    55.1    55.1      0     0.71      3.6      0.9      0.9    24    17.0     4.833    19.6    0.948    3.791       41      0.57    0.000    0.000
    27     6     1    98    4    14.5    0.95     -9     76      4      0      0    54.8    54.8      0     0.71      3.5      0.9      0.9    24    17.0     4.862    20.7    1.005    4.019       41      0.60    0.000    0.000
    28     6     1    99    4    14.5    0.95     -9     76      4      0      0    54.6    54.6      0     0.70      3.5      0.8      0.8    24    17.0     4.890    21.7    1.062    4.248       41      0.63    0.000    0.000
    29     6     1   100    4    14.5    0.95     -9     76      5      0      0    54.3    54.3      0     0.70      3.5      0.8      0.8    24    17.0     4.919    22.8    1.120    4.480       40      0.66    0.000    0.000
    30     6     1   101    4    14.5    0.95     -9     77      6      0      0    54.0    54.0      0     0.69      3.4      0.8      0.8    23    17.0     4.945    23.8    1.178    4.712       40      0.69    0.000    0.000
     1     7     1   102    4    14.5    0.95     -9     78      6      0      0    53.7    53.7      0     0.68      3.4      0.8      0.8    22    17.0     4.971    24.9    1.236    4.944       40      0.72    0.000    0.000
     2     7     1   103    4    14.5    0.95     -9     79      7      0      0    53.2    53.2      0     0.67      3.3      0.7      0.7    21    17.0     4.995    25.9    1.294    5.176       39      0.76    0.000    0.000
     3     7     1   104    4    14.5    0.95     -9     80      9      0      0    52.7    52.7      0     0.66      3.3      0.7      0.7    20    17.0     5.018    26.9    1.352    5.408       39      0.79    0.000    0.000
     4     7     1   105    4    14.5    0.95     -9     80     10      0      0    52.1    52.1      0     0.64      3.2      0.6      0.6    20    17.0     5.040    28.0    1.410    5.640       39      0.82    0.000    0.000
     5     7     1   106    4    14.5    0.95     -9     81     11      0      0    51.4    51.4      0     0.63      3.1      0.6      0.6    19    17.0     5.060    29.0    1.468    5.871       39      0.85    0.000    0.000
     6     7     1   107    4    14.5    0.95     -9     82     12      0      0    50.5    50.5      0     0.61      3.1      0.6      0.6    18    17.0     5.079    30.0    1.526    6.102       38      0.88    0.000    0.000
     7     7     1   108    4    14.5    0.95     -9     82     13      0      0    49.6    49.6      0     0.59      3.0      0.5      0.5    18    17.0     5.097    31.1    1.583    6.332       38      0.91    0.000    0.000
     8     7     1   109    4    14.5    0.95     -9     83     14      0      0    48.5    48.5      0     0.57      2.8      0.5      0.5    17    17.0     5.114    32.1    1.640    6.561       38      0.94    0.000    0.000
     9     7     1   110    4    14.5    0.95     -9     83     15      0      0    47.2    47.2      0     0.54      2.7      0.5      0.5    17    17.0     5.129    33.1    1.697    6.789       37      0.97    0.000    0.000
    10     7     1   111    4    14.5    0.95     -9     84     16      0      0    45.7    45.7      0     0.51      2.6      0.4      0.4    16    17.0     5.143    34.1    1.754    7.016       37      1.00    0.000    0.000
    11     7     1   112    4    14.5    0.95     -9     84     17      0      0    43.9    43.9      0     0.48      2.4      0.4      0.4    16    17.0     5.156    35.1    1.810    7.242       37      1.03    0.000    0.000
    12     7     1   113    4    14.5    0.95     -9     85     18      0      0    42.0    42.0      0     0.44      2.2      0.3      0.3    15    17.0     5.167    36.1    1.867    7.466       36      1.06    0.000    0.000
    13     7     1   114    4    14.5    0.95     -9     85     19      0      0    39.7    39.7      0     0.40      2.0      0.3      0.3    15    17.0     5.177    37.1    1.922    7.689       36      1.09    0.000    0.000
    14     7     1   115    4    14.5    0.95     -9     85     20      0      0    37.0    37.0      0     0.35      1.8      0.3      0.3    15    17.0     5.186    38.1    1.977    7.909       36      1.12    0.000    0.000
    15     7     1   116    4    14.5    0.95     -9     86     20      0      0    34.0    34.0      0     0.30      1.5      0.2      0.2    14    17.0     5.193    39.1    2.032    8.128       35      1.15    0.000    0.000
    16     7     1   117    4    14.5    0.95     -9     86     21      0      0    30.6    30.6      0     0.25      1.2      0.2      0.2    14    17.0     5.199    40.1    2.086    8.345       35      1.18    0.000    0.000
    17     7     1   118    4    14.5    0.95     -9     86     21      0      0    26.6    26.6      0     0.19      1.0      0.1      0.1    14    17.0     5.204    41.1    2.140    8.559       35      1.20    0.000    0.000
    18     7     1   119    4    14.5    0.95     -9     86     22      0      0    22.1    22.1      0     0.14      0.7      0.1      0.1    14    17.0     5.207    42.1    2.193    8.772       35      1.23    0.000    0.000
    19     7     1   120    4    14.5    0.95     -9     86     22      0      0    16.9    16.9      0     0.08      0.4      0.1      0.1    14    17.0     5.209    43.1    2.245    8.982       34      1.26    0.000    0.000
    20     7     1   121    4    14.5    0.95     -9     87     22      0      0    10.9    10.9      0     0.04      0.2      0.0      0.0    13    17.0     5.210    44.1    2.298    9.190       34      1.29    0.000    0.000
    21     7     1   122    4    14.5    0.95     -9     87     23      0      0     5.0     5.0      0     0.01      0.0      0.0      0.0    13    17.0     5.210    44.1    2.298    9.190       34      1.29    0.000    0.000
    22     7     1   123    4    14.5    0.95     -9     87     23      0      0     4.6     4.6      0     0.01      0.0      0.0      0.0    13    17.0     5.210    44.1    2.298    9.191       34      1.29    0.000    0.000
    23     7     1   124    4    14.5    0.95     -9     87     23      0      0     4.2     4.2      0     0.01      0.0      0.0      0.0    13    17.0     5.210    44.1    2.298    9.191       34      1.29    0.000    0.000
    24     7     1   125    4    14.5    0.95     -9     87     23      0      0     3.9     3.9      0     0.00      0.0      0.0      0.0    13    17.0     5.210    44.1    2.298    9.191       33      1.29    0.000    0.000

Legend

DAP          : Days after planting
Stage        : 0: before/after planting
Stage        : 1: emergence or transplant recovery
Stage        : 2: vegetative stage
Stage        : 3: flowering
Stage        : 4: yield formation and ripening
GD           : Growing degrees
Z            : Effective rooting depth
StExp        : Percent water stress reducing leaf expansion
StSto        : Percent water stress inducing stomatal closure
StSen        : Percent water stress triggering early canopy senescence
StSalt       : Percent salinity stress
StWeed       : Relative cover of weeds
CC           : Green total Canopy Cover of crop and weeds
CCw          : Green crop Canopy Cover in weed infested field
StTr         : Percent temperature stress affecting crop transpiration
Kc(Tr)       : Crop coefficient for transpiration
Trx          : Maximum total transpiration of crop and weeds
Tr           : Total transpiration of crop and weeds
TrW          : Crop transpiration in weed infested field
Tr/Trx       : Relative total transpiration of crop and weeds (100 Tr/Trx)
WP           : Crop water productivity adjusted for CO2, soil fertility and products synthesized
Biomass      : Total above-ground dry biomass
HI           : Harvest Index adjusted for failure of pollination, inadequate photosynthesis and water stress
Y(dry)       : Dry crop yield (HI x Biomass)
Y(fresh)     : Fresh crop yield
Brelative    : Relative biomass (Reference: no water, no soil fertility, no soil salinity stress, no weed infestation)
WPet         : ET Water productivity for yield part (kg yield produced per m3 water evapotranspired)
Bin          : Daily mass of assimilates remobilized from below-ground organs at start of season
Bout         : Daily mass of assimilates stored in below-ground organs at end of season
