AquaCrop 7.1 (August 2023) - Output created on (date) : 12/07/2023   at (time) : 15:35:16
Biomass and Yield at Multiple cuttings

** Run number:  1
    Nr   Day  Month Year   DAP Interval  Biomass    Sum(B)   Dry-Yield  Sum(Y) Fresh-Yield  Sum(Y)
                                 days     ton/ha    ton/ha    ton/ha    ton/ha    ton/ha    ton/ha
     0    22     3  9999                             0.000               0.000               0.000
  9999    25     7  9999                             5.210               2.298               9.191

Legend

DAP          : Days after planting
Interval     : Number of days between events
Nr = 0       : At start of season
Nr = 1 to n  : Harvest event
Nr = 9999    : At end of season
