AquaCrop 7.1 (August 2023) - Output created on (date) : 12/07/2023   at (time) : 15:35:33
Evaluation of simulation results - Statistics


  ASSESSMENT OF CANOPY COVER --------------------------------------
              --------- Canopy Cover (%) ---------
    Nr        Observed    +/- St Dev     Simulated    Date
  ----------------------------------------------------------------
     1           5.0           3.0           3.0       1 April 
     2          30.0           5.0          44.0      20 April 
     3          50.0          -9.0          57.0      30 April 
     4          60.0           5.0          57.0      10 May 
     5          45.0           6.0          47.2       9 July 

  Valid observations/simulations sets (n) ....... :     5
  Average of observed Canopy Cover .............. :    38.0   %
  Average of simulated Canopy Cover ............. :    41.6   %

  Pearson Correlation Coefficient (r) ........... :     0.95
  Root mean square error (RMSE) ................. :     7.3   % CC
  Normalized root mean square error  CV(RMSE).... :    19.1   %
  Nash-Sutcliffe model efficiency coefficient (EF):     0.86
  Willmotts index of agreement (d) .............. :     0.97
  ----------------------------------------------------------------


  ASSESSMENT OF BIOMASS PRODUCTION --------------------------------
              --------- Biomass (ton/ha) ---------
    Nr        Observed    +/- St Dev     Simulated    Date
  ----------------------------------------------------------------
     1           1.000         0.300         0.940      20 April 
     2           4.000         0.200         3.964       1 June 
     3           4.400         0.300         4.618      19 June 
     4           5.000         0.500         5.129       9 July 
     5           5.500         0.500         5.209      19 July 

  Valid observations/simulations sets (n) ....... :     5
  Average of observed Biomass production ........ :     3.980   ton/ha
  Average of simulated Biomass production ....... :     3.972   ton/ha

  Pearson Correlation Coefficient (r) ........... :     0.99
  Root mean square error (RMSE) ................. :     0.175   ton/ha
  Normalized root mean square error  CV(RMSE).... :     4.4   %
  Nash-Sutcliffe model efficiency coefficient (EF):     0.99
  Willmotts index of agreement (d) .............. :     1.00
  ----------------------------------------------------------------


  ASSESSMENT OF SOIL WATER CONTENT --------------------------------
              ------ Soil water content (mm) -----
    Nr        Observed    +/- St Dev     Simulated    Date
  ----------------------------------------------------------------
     1         300.0          20.0         280.8       1 April 
     2         250.0          25.0         215.9      30 April 
     3         150.0          30.0         159.6       1 June 
     4         100.0          10.0         124.7       9 July 
     5         100.0          10.0         122.1      19 July 

  Valid observations/simulations sets (n) ....... :     5
  Average of observed Soil water content ........ :   180.0   mm
  Average of simulated Soil water content ....... :   180.6   mm

  Pearson Correlation Coefficient (r) ........... :     0.99
  Root mean square error (RMSE) ................. :    23.3   mm
  Normalized root mean square error  CV(RMSE).... :    13.0   %
  Nash-Sutcliffe model efficiency coefficient (EF):     0.92
  Willmotts index of agreement (d) .............. :     0.97
  ----------------------------------------------------------------

