AquaCrop 7.1 (August 2023) - Output created on (date) : 12/07/2023   at (time) : 15:35:16
Soil Water balance

** Run number:  1
   Day Month  Year   DAP Stage     WCTot    Rain     Irri   Surf   Infilt   RO    Drain       CR    Zgwt       Ex       E     E/Ex    Trx       Tr  Tr/Trx    ETx      ET   ET/ETx
                                      mm      mm       mm     mm     mm     mm       mm       mm      m        mm       mm     %       mm       mm    %        mm      mm      %
    22     3     1     1    1      355.6     0.0      0.0    0.0    0.0    0.0      0.0      0.0   -9.90      5.5      4.4    79      0.0      0.0   100      5.5     4.4     79
    23     3     1     2    1      352.7     0.0      0.0    0.0    0.0    0.0      0.0      0.0   -9.90      5.5      2.9    53      0.0      0.0   100      5.5     2.9     53
    24     3     1     3    1      350.5     0.0      0.0    0.0    0.0    0.0      0.0      0.0   -9.90      5.5      2.2    40      0.0      0.0   100      5.5     2.2     40
    25     3     1     4    1      348.8     0.0      0.0    0.0    0.0    0.0      0.0      0.0   -9.90      5.5      1.8    32      0.0      0.0   100      5.5     1.8     32
    26     3     1     5    1      347.3     0.0      0.0    0.0    0.0    0.0      0.0      0.0   -9.90      5.5      1.5    27      0.0      0.0   100      5.5     1.5     27
    27     3     1     6    2      345.9     0.0      0.0    0.0    0.0    0.0      0.0      0.0   -9.90      5.4      1.2    23      0.1      0.1   100      5.5     1.4     25
    28     3     1     7    2      344.7     0.0      0.0    0.0    0.0    0.0      0.0      0.0   -9.90      5.3      1.1    20      0.2      0.2   100      5.5     1.2     22
    29     3     1     8    2      343.6     0.0      0.0    0.0    0.0    0.0      0.0      0.0   -9.90      5.3      0.9    17      0.2      0.2   100      5.5     1.1     20
    30     3     1     9    2      342.6     0.0      0.0    0.0    0.0    0.0      0.0      0.0   -9.90      5.3      0.8    15      0.2      0.2   100      5.5     1.0     18
    31     3     1    10    2      341.7     0.0      0.0    0.0    0.0    0.0      0.0      0.0   -9.90      5.3      0.7    14      0.2      0.2   100      5.5     1.0     17
     1     4     1    11    2      340.8     0.0      0.0    0.0    0.0    0.0      0.0      0.0   -9.90      5.2      0.6    12      0.3      0.3   100      5.5     0.9     17
     2     4     1    12    2      339.9     0.0      0.0    0.0    0.0    0.0      0.0      0.0   -9.90      5.2      0.6    11      0.3      0.3   100      5.5     0.9     16
     3     4     1    13    2      339.0     0.0      0.0    0.0    0.0    0.0      0.0      0.0   -9.90      5.1      0.5    10      0.4      0.4   100      5.5     0.9     16
     4     4     1    14    2      338.1     0.0      0.0    0.0    0.0    0.0      0.0      0.0   -9.90      5.1      0.5     9      0.4      0.4   100      5.5     0.9     16
     5     4     1    15    2      337.2     0.0      0.0    0.0    0.0    0.0      0.0      0.0   -9.90      5.0      0.4     8      0.5      0.5   100      5.5     0.9     16
     6     4     1    16    2      336.3     0.0      0.0    0.0    0.0    0.0      0.0      0.0   -9.90      4.9      0.4     8      0.6      0.6   100      5.5     0.9     17
     7     4     1    17    2      335.3     0.0      0.0    0.0    0.0    0.0      0.0      0.0   -9.90      4.8      0.4     7      0.7      0.7   100      5.5     1.0     18
     8     4     1    18    2      334.2     0.0      0.0    0.0    0.0    0.0      0.0      0.0   -9.90      4.7      0.3     7      0.8      0.8   100      5.5     1.1     20
     9     4     1    19    2      333.0     0.0      0.0    0.0    0.0    0.0      0.0      0.0   -9.90      4.6      0.3     7      0.9      0.9   100      5.5     1.2     21
    10     4     1    20    2      331.7     0.0      0.0    0.0    0.0    0.0      0.0      0.0   -9.90      4.5      0.3     6      1.0      1.0   100      5.5     1.3     23
    11     4     1    21    2      330.3     0.0      0.0    0.0    0.0    0.0      0.0      0.0   -9.90      4.4      0.3     6      1.1      1.1   100      5.5     1.4     25
    12     4     1    22    2      328.8     0.0      0.0    0.0    0.0    0.0      0.0      0.0   -9.90      4.2      0.2     5      1.3      1.3   100      5.5     1.5     28
    13     4     1    23    2      327.1     0.0      0.0    0.0    0.0    0.0      0.0      0.0   -9.90      4.0      0.2     5      1.5      1.5   100      5.5     1.7     31
    14     4     1    24    2      325.2     0.0      0.0    0.0    0.0    0.0      0.0      0.0   -9.90      3.8      0.2     5      1.7      1.7   100      5.5     1.9     34
    15     4     1    25    2      323.2     0.0      0.0    0.0    0.0    0.0      0.0      0.0   -9.90      3.6      0.1     4      1.9      1.9   100      5.5     2.1     37
    16     4     1    26    2      320.9     0.0      0.0    0.0    0.0    0.0      0.0      0.0   -9.90      3.3      0.1     3      2.2      2.2   100      5.5     2.3     41
    17     4     1    27    2      318.4     0.0      0.0    0.0    0.0    0.0      0.0      0.0   -9.90      3.1      0.1     3      2.4      2.4   100      5.5     2.5     46
    18     4     1    28    2      315.6     0.0      0.0    0.0    0.0    0.0      0.0      0.0   -9.90      2.8      0.1     3      2.7      2.7   100      5.5     2.8     50
    19     4     1    29    2      312.6     0.0      0.0    0.0    0.0    0.0      0.0      0.0   -9.90      2.5      0.1     2      3.0      3.0   100      5.5     3.0     55
    20     4     1    30    2      309.3     0.0      0.0    0.0    0.0    0.0      0.0      0.0   -9.90      2.3      0.0     2      3.2      3.2   100      5.5     3.3     60
    21     4     1    31    2      305.8     0.0      0.0    0.0    0.0    0.0      0.0      0.0   -9.90      2.1      0.0     2      3.4      3.4   100      5.5     3.5     63
    22     4     1    32    2      302.2     0.0      0.0    0.0    0.0    0.0      0.0      0.0   -9.90      1.9      0.0     2      3.6      3.6   100      5.5     3.6     66
    23     4     1    33    2      298.4     0.0      0.0    0.0    0.0    0.0      0.0      0.0   -9.90      1.8      0.0     2      3.7      3.7   100      5.5     3.8     68
    24     4     1    34    2      294.8     0.0      0.0    0.0    0.0    0.0      0.0      0.0   -9.90      1.7      0.0     1      3.8      3.6    95      5.5     3.6     66
    25     4     1    35    2      291.3     0.0      0.0    0.0    0.0    0.0      0.0      0.0   -9.90      1.6      0.0     1      3.9      3.5    90      5.5     3.5     64
    26     4     1    36    2      287.9     0.0      0.0    0.0    0.0    0.0      0.0      0.0   -9.90      1.6      0.0     1      3.9      3.3    85      5.5     3.4     61
    27     4     1    37    2      284.7     0.0      0.0    0.0    0.0    0.0      0.0      0.0   -9.90      1.6      0.0     1      3.9      3.2    81      5.5     3.2     58
    28     4     1    38    2      281.7     0.0      0.0    0.0    0.0    0.0      0.0      0.0   -9.90      1.6      0.0     1      3.9      3.0    78      5.5     3.1     56
    29     4     1    39    2      278.7     0.0      0.0    0.0    0.0    0.0      0.0      0.0   -9.90      1.6      0.0     1      3.9      2.9    74      5.5     2.9     53
    30     4     1    40    2      275.9     0.0      0.0    0.0    0.0    0.0      0.0      0.0   -9.90      1.6      0.0     1      3.9      2.8    71      5.5     2.8     51
     1     5     1    41    2      273.2     0.0      0.0    0.0    0.0    0.0      0.0      0.0   -9.90      1.6      0.0     1      3.9      2.7    68      5.5     2.7     49
     2     5     1    42    2      270.7     0.0      0.0    0.0    0.0    0.0      0.0      0.0   -9.90      1.6      0.0     1      3.9      2.6    65      5.5     2.6     47
     3     5     1    43    2      268.2     0.0      0.0    0.0    0.0    0.0      0.0      0.0   -9.90      1.6      0.0     1      3.9      2.5    63      5.5     2.5     45
     4     5     1    44    2      265.8     0.0      0.0    0.0    0.0    0.0      0.0      0.0   -9.90      1.6      0.0     1      3.9      2.4    61      5.5     2.4     43
     5     5     1    45    2      263.5     0.0      0.0    0.0    0.0    0.0      0.0      0.0   -9.90      1.6      0.0     1      3.9      2.3    59      5.5     2.3     42
     6     5     1    46    2      261.3     0.0      0.0    0.0    0.0    0.0      0.0      0.0   -9.90      1.6      0.0     1      3.9      2.2    57      5.5     2.2     41
     7     5     1    47    2      259.1     0.0      0.0    0.0    0.0    0.0      0.0      0.0   -9.90      1.6      0.0     1      3.9      2.1    55      5.5     2.2     39
     8     5     1    48    2      257.0     0.0      0.0    0.0    0.0    0.0      0.0      0.0   -9.90      1.6      0.0     1      3.9      2.1    53      5.5     2.1     38
     9     5     1    49    2      255.0     0.0      0.0    0.0    0.0    0.0      0.0      0.0   -9.90      1.6      0.0     1      3.9      2.0    51      5.5     2.0     37
    10     5     1    50    2      253.0     0.0      0.0    0.0    0.0    0.0      0.0      0.0   -9.90      1.6      0.0     1      3.9      1.9    50      5.5     2.0     36
    11     5     1    51    2      251.1     0.0      0.0    0.0    0.0    0.0      0.0      0.0   -9.90      1.6      0.0     1      3.9      1.9    48      5.5     1.9     35
    12     5     1    52    2      249.3     0.0      0.0    0.0    0.0    0.0      0.0      0.0   -9.90      1.6      0.0     1      3.9      1.8    47      5.5     1.9     34
    13     5     1    53    2      247.4     0.0      0.0    0.0    0.0    0.0      0.0      0.0   -9.90      1.6      0.0     1      3.9      1.8    46      5.5     1.8     33
    14     5     1    54    2      245.7     0.0      0.0    0.0    0.0    0.0      0.0      0.0   -9.90      1.6      0.0     1      3.9      1.7    45      5.5     1.8     32
    15     5     1    55    2      244.0     0.0      0.0    0.0    0.0    0.0      0.0      0.0   -9.90      1.6      0.0     1      3.9      1.7    44      5.5     1.7     31
    16     5     1    56    2      242.3     0.0      0.0    0.0    0.0    0.0      0.0      0.0   -9.90      1.6      0.0     1      3.9      1.7    43      5.5     1.7     31
    17     5     1    57    2      240.6     0.0      0.0    0.0    0.0    0.0      0.0      0.0   -9.90      1.6      0.0     1      3.9      1.6    42      5.5     1.6     30
    18     5     1    58    2      239.0     0.0      0.0    0.0    0.0    0.0      0.0      0.0   -9.90      1.6      0.0     1      3.9      1.6    41      5.5     1.6     29
    19     5     1    59    2      237.5     0.0      0.0    0.0    0.0    0.0      0.0      0.0   -9.90      1.6      0.0     1      3.9      1.6    40      5.5     1.6     29
    20     5     1    60    2      235.9     0.0      0.0    0.0    0.0    0.0      0.0      0.0   -9.90      1.6      0.0     1      3.9      1.5    39      5.5     1.5     28
    21     5     1    61    2      234.4     0.0      0.0    0.0    0.0    0.0      0.0      0.0   -9.90      1.6      0.0     1      3.9      1.5    38      5.5     1.5     27
    22     5     1    62    2      232.9     0.0      0.0    0.0    0.0    0.0      0.0      0.0   -9.90      1.6      0.0     1      3.9      1.5    37      5.5     1.5     27
    23     5     1    63    2      231.5     0.0      0.0    0.0    0.0    0.0      0.0      0.0   -9.90      1.6      0.0     1      3.9      1.4    37      5.5     1.4     26
    24     5     1    64    2      230.1     0.0      0.0    0.0    0.0    0.0      0.0      0.0   -9.90      1.6      0.0     1      3.9      1.4    36      5.5     1.4     26
    25     5     1    65    2      228.7     0.0      0.0    0.0    0.0    0.0      0.0      0.0   -9.90      1.6      0.0     1      3.9      1.4    35      5.5     1.4     25
    26     5     1    66    2      227.3     0.0      0.0    0.0    0.0    0.0      0.0      0.0   -9.90      1.6      0.0     1      3.9      1.3    35      5.5     1.4     25
    27     5     1    67    2      226.0     0.0      0.0    0.0    0.0    0.0      0.0      0.0   -9.90      1.6      0.0     1      3.9      1.3    34      5.5     1.3     25
    28     5     1    68    2      224.7     0.0      0.0    0.0    0.0    0.0      0.0      0.0   -9.90      1.6      0.0     1      3.9      1.3    34      5.5     1.3     24
    29     5     1    69    2      223.4     0.0      0.0    0.0    0.0    0.0      0.0      0.0   -9.90      1.6      0.0     1      3.9      1.3    33      5.5     1.3     24
    30     5     1    70    2      222.1     0.0      0.0    0.0    0.0    0.0      0.0      0.0   -9.90      1.6      0.0     1      3.9      1.3    33      5.5     1.3     23
    31     5     1    71    3      220.8     0.0      0.0    0.0    0.0    0.0      0.0      0.0   -9.90      1.6      0.0     1      3.9      1.2    32      5.5     1.3     23
     1     6     1    72    3      219.6     0.0      0.0    0.0    0.0    0.0      0.0      0.0   -9.90      1.6      0.0     1      3.9      1.2    32      5.5     1.2     23
     2     6     1    73    3      218.4     0.0      0.0    0.0    0.0    0.0      0.0      0.0   -9.90      1.6      0.0     1      3.9      1.2    31      5.4     1.2     22
     3     6     1    74    3      217.2     0.0      0.0    0.0    0.0    0.0      0.0      0.0   -9.90      1.6      0.0     1      3.9      1.2    31      5.4     1.2     22
     4     6     1    75    3      216.0     0.0      0.0    0.0    0.0    0.0      0.0      0.0   -9.90      1.6      0.0     1      3.9      1.2    30      5.4     1.2     22
     5     6     1    76    3      214.8     0.0      0.0    0.0    0.0    0.0      0.0      0.0   -9.90      1.6      0.0     1      3.9      1.2    30      5.4     1.2     21
     6     6     1    77    3      213.7     0.0      0.0    0.0    0.0    0.0      0.0      0.0   -9.90      1.6      0.0     1      3.8      1.1    29      5.4     1.2     21
     7     6     1    78    3      212.6     0.0      0.0    0.0    0.0    0.0      0.0      0.0   -9.90      1.6      0.0     1      3.8      1.1    29      5.4     1.1     21
     8     6     1    79    3      211.4     0.0      0.0    0.0    0.0    0.0      0.0      0.0   -9.90      1.6      0.0     1      3.8      1.1    29      5.4     1.1     21
     9     6     1    80    3      210.3     0.0      0.0    0.0    0.0    0.0      0.0      0.0   -9.90      1.6      0.0     1      3.8      1.1    28      5.4     1.1     20
    10     6     1    81    4      209.2     0.0      0.0    0.0    0.0    0.0      0.0      0.0   -9.90      1.6      0.0     1      3.8      1.1    28      5.4     1.1     20
    11     6     1    82    4      208.2     0.0      0.0    0.0    0.0    0.0      0.0      0.0   -9.90      1.6      0.0     1      3.8      1.1    28      5.4     1.1     20
    12     6     1    83    4      207.1     0.0      0.0    0.0    0.0    0.0      0.0      0.0   -9.90      1.6      0.0     1      3.8      1.0    27      5.4     1.1     20
    13     6     1    84    4      206.1     0.0      0.0    0.0    0.0    0.0      0.0      0.0   -9.90      1.6      0.0     1      3.8      1.0    27      5.4     1.0     19
    14     6     1    85    4      205.0     0.0      0.0    0.0    0.0    0.0      0.0      0.0   -9.90      1.6      0.0     1      3.8      1.0    27      5.4     1.0     19
    15     6     1    86    4      204.0     0.0      0.0    0.0    0.0    0.0      0.0      0.0   -9.90      1.6      0.0     1      3.8      1.0    27      5.4     1.0     19
    16     6     1    87    4      203.0     0.0      0.0    0.0    0.0    0.0      0.0      0.0   -9.90      1.6      0.0     1      3.8      1.0    26      5.4     1.0     19
    17     6     1    88    4      202.0     0.0      0.0    0.0    0.0    0.0      0.0      0.0   -9.90      1.6      0.0     1      3.7      1.0    26      5.4     1.0     19
    18     6     1    89    4      201.0     0.0      0.0    0.0    0.0    0.0      0.0      0.0   -9.90      1.6      0.0     1      3.7      1.0    26      5.4     1.0     18
    19     6     1    90    4      200.1     0.0      0.0    0.0    0.0    0.0      0.0      0.0   -9.90      1.6      0.0     1      3.7      1.0    26      5.3     1.0     18
    20     6     1    91    4      199.1     0.0      0.0    0.0    0.0    0.0      0.0      0.0   -9.90      1.6      0.0     1      3.7      0.9    25      5.3     1.0     18
    21     6     1    92    4      198.2     0.0      0.0    0.0    0.0    0.0      0.0      0.0   -9.90      1.6      0.0     1      3.7      0.9    25      5.3     0.9     18
    22     6     1    93    4      197.2     0.0      0.0    0.0    0.0    0.0      0.0      0.0   -9.90      1.6      0.0     1      3.7      0.9    25      5.3     0.9     18
    23     6     1    94    4      196.3     0.0      0.0    0.0    0.0    0.0      0.0      0.0   -9.90      1.7      0.0     1      3.6      0.9    25      5.3     0.9     17
    24     6     1    95    4      195.4     0.0      0.0    0.0    0.0    0.0      0.0      0.0   -9.90      1.7      0.0     1      3.6      0.9    25      5.3     0.9     17
    25     6     1    96    4      194.5     0.0      0.0    0.0    0.0    0.0      0.0      0.0   -9.90      1.7      0.0     1      3.6      0.9    24      5.3     0.9     17
    26     6     1    97    4      193.7     0.0      0.0    0.0    0.0    0.0      0.0      0.0   -9.90      1.7      0.0     1      3.6      0.9    24      5.2     0.9     17
    27     6     1    98    4      192.8     0.0      0.0    0.0    0.0    0.0      0.0      0.0   -9.90      1.7      0.0     1      3.5      0.9    24      5.2     0.9     17
    28     6     1    99    4      191.9     0.0      0.0    0.0    0.0    0.0      0.0      0.0   -9.90      1.7      0.0     1      3.5      0.8    24      5.2     0.9     16
    29     6     1   100    4      191.1     0.0      0.0    0.0    0.0    0.0      0.0      0.0   -9.90      1.7      0.0     1      3.5      0.8    24      5.2     0.8     16
    30     6     1   101    4      190.3     0.0      0.0    0.0    0.0    0.0      0.0      0.0   -9.90      1.7      0.0     1      3.4      0.8    23      5.2     0.8     16
     1     7     1   102    4      189.5     0.0      0.0    0.0    0.0    0.0      0.0      0.0   -9.90      1.8      0.0     1      3.4      0.8    22      5.2     0.8     15
     2     7     1   103    4      188.8     0.0      0.0    0.0    0.0    0.0      0.0      0.0   -9.90      1.8      0.0     1      3.3      0.7    21      5.1     0.7     14
     3     7     1   104    4      188.1     0.0      0.0    0.0    0.0    0.0      0.0      0.0   -9.90      1.8      0.0     1      3.3      0.7    20      5.1     0.7     14
     4     7     1   105    4      187.4     0.0      0.0    0.0    0.0    0.0      0.0      0.0   -9.90      1.8      0.0     1      3.2      0.6    20      5.1     0.7     13
     5     7     1   106    4      186.8     0.0      0.0    0.0    0.0    0.0      0.0      0.0   -9.90      1.9      0.0     1      3.1      0.6    19      5.0     0.6     12
     6     7     1   107    4      186.2     0.0      0.0    0.0    0.0    0.0      0.0      0.0   -9.90      1.9      0.0     1      3.1      0.6    18      5.0     0.6     12
     7     7     1   108    4      185.7     0.0      0.0    0.0    0.0    0.0      0.0      0.0   -9.90      2.0      0.0     1      3.0      0.5    18      4.9     0.5     11
     8     7     1   109    4      185.2     0.0      0.0    0.0    0.0    0.0      0.0      0.0   -9.90      2.0      0.0     1      2.8      0.5    17      4.9     0.5     10
     9     7     1   110    4      184.7     0.0      0.0    0.0    0.0    0.0      0.0      0.0   -9.90      2.1      0.0     1      2.7      0.5    17      4.8     0.5     10
    10     7     1   111    4      184.3     0.0      0.0    0.0    0.0    0.0      0.0      0.0   -9.90      2.2      0.0     1      2.6      0.4    16      4.7     0.4      9
    11     7     1   112    4      183.9     0.0      0.0    0.0    0.0    0.0      0.0      0.0   -9.90      2.2      0.0     1      2.4      0.4    16      4.6     0.4      9
    12     7     1   113    4      183.5     0.0      0.0    0.0    0.0    0.0      0.0      0.0   -9.90      2.3      0.0     1      2.2      0.3    15      4.4     0.4      8
    13     7     1   114    4      183.2     0.0      0.0    0.0    0.0    0.0      0.0      0.0   -9.90      2.3      0.0     1      2.0      0.3    15      4.3     0.3      7
    14     7     1   115    4      182.9     0.0      0.0    0.0    0.0    0.0      0.0      0.0   -9.90      2.4      0.0     1      1.8      0.3    15      4.2     0.3      7
    15     7     1   116    4      182.7     0.0      0.0    0.0    0.0    0.0      0.0      0.0   -9.90      2.5      0.0     1      1.5      0.2    14      4.0     0.2      6
    16     7     1   117    4      182.5     0.0      0.0    0.0    0.0    0.0      0.0      0.0   -9.90      2.6      0.0     1      1.2      0.2    14      3.8     0.2      5
    17     7     1   118    4      182.3     0.0      0.0    0.0    0.0    0.0      0.0      0.0   -9.90      2.7      0.0     1      1.0      0.1    14      3.6     0.2      4
    18     7     1   119    4      182.2     0.0      0.0    0.0    0.0    0.0      0.0      0.0   -9.90      2.8      0.0     1      0.7      0.1    14      3.5     0.1      3
    19     7     1   120    4      182.1     0.0      0.0    0.0    0.0    0.0      0.0      0.0   -9.90      3.1      0.0     1      0.4      0.1    14      3.5     0.1      2
    20     7     1   121    4      182.1     0.0      0.0    0.0    0.0    0.0      0.0      0.0   -9.90      3.5      0.0     1      0.2      0.0    13      3.6     0.1      2
    21     7     1   122    4      182.0     0.0      0.0    0.0    0.0    0.0      0.0      0.0   -9.90      3.9      0.0     1      0.0      0.0    13      3.9     0.0      1
    22     7     1   123    4      182.0     0.0      0.0    0.0    0.0    0.0      0.0      0.0   -9.90      3.9      0.0     1      0.0      0.0    13      3.9     0.0      1
    23     7     1   124    4      182.0     0.0      0.0    0.0    0.0    0.0      0.0      0.0   -9.90      3.9      0.0     1      0.0      0.0    13      3.9     0.0      1
    24     7     1   125    4      181.9     0.0      0.0    0.0    0.0    0.0      0.0      0.0   -9.90      3.9      0.0     1      0.0      0.0    13      4.0     0.0      1

Legend

DAP          : Days after planting
Stage        : 0: before/after planting
Stage        : 1: emergence or transplant recovery
Stage        : 2: vegetative stage
Stage        : 3: flowering
Stage        : 4: yield formation and ripening
WCTot        : Water content in total soil profile
Rain         : Rainfall
Irri         : Water applied by irrigation
Surf         : Stored water on soil surface between bunds
Infilt       : Infiltrated water in soil profile
RO           : Surface runoff
Drain        : Water drained out of the soil profile
CR           : Water moved upward by capillary rise
Zgwt         : Depth of the groundwater table (-9.90 if absent)
Ex           : Maximum soil evaporation
E            : Soil evaporation
E/Ex         : Relative soil evaporation (100 E/Ex)
Trx          : Maximum crop transpiration
Tr           : Total transpiration of crop and weeds
Tr/Trx       : Relative transpiration (100 Tr/Trx)
ETx          : Evapotranspiration maximale
ET           : Evapotranspiration
ET/ETx       : Evapotranspiration relative (100 ET/ETx)
